Version 4
SHEET 1 880 680
WIRE 112 -16 64 -16
WIRE 304 64 112 64
WIRE 144 112 112 112
WIRE 304 128 304 64
WIRE 304 128 256 128
WIRE 384 128 304 128
WIRE 64 144 64 -16
WIRE 112 144 112 112
WIRE 112 144 64 144
WIRE 144 144 112 144
WIRE 304 160 304 128
WIRE 64 208 64 144
WIRE 64 288 64 272
WIRE 304 288 304 240
WIRE 304 288 64 288
WIRE 304 304 304 288
FLAG 304 304 0
FLAG 384 128 output
SYMBOL 74HCT\\74hct132 192 64 R0
SYMATTR InstName U1
SYMBOL cap 48 208 R0
SYMATTR InstName C1
SYMATTR Value 10n
SYMBOL res 96 -32 R0
SYMATTR InstName R1
SYMATTR Value 470000
TEXT 120 208 Left 2 !.lib 74hct.lib
TEXT 48 328 Left 2 !.tran 0 0.01 0 1u
