Version 4
SHEET 1 880 680
WIRE -48 192 -48 80
WIRE 512 192 512 80
WIRE 512 192 -48 192
SYMBOL 74HCT\\74hct04 0 16 R0
SYMATTR InstName U1
SYMBOL 74HCT\\74hct04 112 16 R0
SYMATTR InstName U2
SYMBOL 74HCT\\74hct04 224 16 R0
SYMATTR InstName U3
SYMBOL 74HCT\\74hct04 336 16 R0
SYMATTR InstName U4
SYMBOL 74HCT\\74hct04 448 16 R0
SYMATTR InstName U5
TEXT 144 24 Left 2 !.lib 74hct.lib
TEXT -54 198 Left 2 !.tran 0 0.0000001 0 1u
